5

Si 0.840188 0.394383 0.783099
Si 0.79844 0.911647 0.197551
Si 0.335223 0.76823 0.277775
Si 0.55397 0.477397 0.628871
Si 0.364784 0.513401 0.95223
5

Si 0.916195 0.635712 0.717297
Si 0.141603 0.606969 0.0163006
Si 0.242887 0.137232 0.804177
Si 0.156679 0.400944 0.12979
Si 0.108809 0.998925 0.218257
5

Si 0.512932 0.839112 0.61264
Si 0.296032 0.637552 0.524287
Si 0.493583 0.972775 0.292517
Si 0.771358 0.526745 0.769914
Si 0.400229 0.891529 0.283315
